src/data/cigre/CIGRE_IEEE13_PQ_wye.dss
Clear

// added some CapControls and AssetInfosheets to test the CDPSM export

new circuit.IEEE13NodecktAssets
~ baseMVA=1
~ basekv=115 pu=1.00 phases=3 bus1=SourceBus
~ Angle=30                     ! advance angle 30 deg so result agree with published angle
!~ MVAsc3=20000 MVASC1=21000    ! stiffen the source to approximate inf source
~ MVAsc3=200000000 MVASC1=210000000    ! stiffen the source to approximate inf source

New XfmrCode.SubXfmr Phases=3 Windings=2  XHL=(8 1000 /)
~ wdg=1 conn=wye kv=115  kva=5000  %r=(.5 1000 /)
~ wdg=2 conn=wye   kv=4.16 kva=5000  %r=(.5 1000 /)
New XfmrCode.FdrXfmr Phases=3   Windings=2  XHL=2  %NoLoadLoss=0.6 %imag=1.1
~ wdg=1 conn=Wye kv=4.16   kva=500   %r=.55
~ wdg=2 conn=Wye kv=0.480  kva=500   %r=.55
New XfmrCode.RegLeg  phases=1 xhl=0.01 kvas=[1666 1666] kvs=[2.4 2.4] %LoadLoss=0.01

//////////////////////////////////////////////////////////////////

!new WireData.ACSR_556_5  NormAmps=730 DIAM=0.927  GMRac=0.37320  Rdc=0.035227273   Runits=kft Radunits=in gmrunits=in
!new WireData.ACSR_4/0    NormAmps=340 DIAM=0.563  GMRac=0.09768  Rdc=0.112121212   Runits=kft Radunits=in gmrunits=in
!new WireData.ACSR_1/0    NormAmps=230 DIAM=0.398  GMRac=0.05352  Rdc=0.212121212   Runits=kft Radunits=in gmrunits=in
!new WireData.CU_1/0 NormAmps=100 DIAM=0.368  GMRac=0.13356 Rac=0.607 Runits=mi Radunits=in gmrunits=in
!new TSData.TS_1/0   NormAmps=165 DIAM=0.368  GMRac=0.13320 Rac=0.97  Runits=mi Radunits=in gmrunits=in
!~                   EpsR=2.3 Ins=0.220 DiaIns=0.82 DiaCable=1.06 DiaShield=0.88 TapeLayer=0.005 TapeLap=20
!new CNData.CN_250   NormAmps=260 DIAM=0.567  GMRac=0.20520 Rac=0.41  Runits=mi Radunits=in gmrunits=in
!~                   EpsR=2.3 Ins=0.220 DiaIns=1.06 DiaCable=1.29 k=13 DiaStrand=0.0641 GmrStrand=0.02496 Rstrand=14.8722

!new LineSpacing.500 nconds=4 nphases=3 units=ft x=[-4 -1 3 0] h=[28 28 28 24]
!new LineSpacing.505 nconds=3 nphases=2 units=ft x=[-4 3 0] h=[28 28 24]
!new LineSpacing.510 nconds=2 nphases=1 units=ft x=[0.5 0] h=[29 24]

!new LineGeometry.601 nconds=4 nphases=3 reduce=y spacing=500 wires=[ACSR_556_5 ACSR_556_5 ACSR_556_5 ACSR_4/0]
!new LineGeometry.602 nconds=4 nphases=3 reduce=y spacing=500 wires=[ACSR_4/0   ACSR_4/0   ACSR_4/0   ACSR_4/0]
!new LineGeometry.603 nconds=3 nphases=2 reduce=y spacing=505 wires=[ACSR_1/0   ACSR_1/0   ACSR_1/0]
!new LineGeometry.604 like=603
!new LineGeometry.605 nconds=2 nphases=1 reduce=y spacing=510 wires=[ACSR_1/0   ACSR_1/0]

!new LineGeometry.606 nconds=3 nphases=3 reduce=y
!~ cond=1 cncable=CN_250 x=-0.5 h=-4 units=ft
!~ cond=2 cncable=CN_250 x= 0.0 h=-4 units=ft
!~ cond=3 cncable=CN_250 x= 0.5 h=-4 units=ft

!new LineGeometry.607 nconds=2 nphases=1 reduce=y
!~ cond=1 tscable=TS_1/0 x= 0.0000 h=-4 units=ft
!~ cond=2 wire   =CU_1/0 x= 0.2500 h=-4 units=ft

//////////////////////////////////////////////////////////////////

New Linecode.601 nphases=3  Units=kft
~ Rmatrix=[0.0628152  |0.0282997  0.0647306  |0.0277341  0.0286852  0.0635484  ]
~ Xmatrix=[0.168868  |0.078849  0.163722  |0.0641553  0.0723125  0.166888  ]
~ Cmatrix=[2.92938  |-0.888014  3.13949  |-0.375081  -0.701333  2.86474  ]

New Linecode.602 nphases=3  Units=kft
~ Rmatrix=[0.139561  |0.0282997  0.141477  |0.0277341  0.0286852  0.140295  ]
~ Xmatrix=[0.194538  |0.078849  0.189393  |0.0641553  0.0723125  0.192558  ]
~ Cmatrix=[2.67549  |-0.755277  2.84473  |-0.333084  -0.600406  2.62733  ]

New Linecode.603 nphases=2  Units=kft
~ Rmatrix=[0.247211  |0.0355301  0.248174  ]
~ Xmatrix=[0.219997  |0.0783748  0.218589  ]
~ Cmatrix=[2.34559  |-0.452384  2.36766  ]

!New Linecode.604 nphases=2  Units=kft
!~ Rmatrix=[0.226972  |0.0148143  0.226972  |0.0148304  0.0148304  0.227004  ]
!~ Xmatrix=[0.259058  |0.118134  0.259058  |0.122197  0.124561  0.259025  ]
!~ Cmatrix=[2.34559  |-0.452384  2.36766  |-0.520689  -0.570053  2.4401  ]

New Linecode.604 nphases=2  Units=kft
~ Rmatrix=[0.247211  |0.0355301  0.248174  ]
~ Xmatrix=[0.219997  |0.0783748  0.218589  ]
~ Cmatrix=[2.34559  |-0.452384  2.36766  ]

New Linecode.605 nphases=1  Units=kft
~ Rmatrix=[0.248131  ]
~ Xmatrix=[0.218653  ]
~ Cmatrix=[2.27193  ]

New Linecode.606 nphases=3  Units=kft
~ Rmatrix=[0.144046  |0.0588928  0.143517  |0.0538375  0.0588928  0.144046  ]
~ Xmatrix=[0.0772516  |0.0111455  0.0704543  |0.00306677  0.0111455  0.0772516  ]
~ Cmatrix=[72.7194  |0  72.7194  |0  0  72.7194  ]

New Linecode.607 nphases=1  Units=kft
~ Rmatrix=[0.239885  ]
~ Xmatrix=[0.11505  ]
~ Cmatrix=[50.7062  ]

//////////////////////////////////////////////////////////////////

!New Transformer.Sub  XfmrCode=SubXfmr Buses=[SourceBus 650]
New Transformer.Sub Buses=[SourceBus 650]
~ Phases=3 Windings=2  XHL=(8 1000 /)
~ wdg=1 conn=wye kv=115  kva=5000  %r=(.5 1000 /)
~ wdg=2 conn=wye   kv=4.16 kva=5000  %r=(.5 1000 /)

!New Transformer.XFM1 XfmrCode=FdrXfmr Buses=[633 634]
New Transformer.XFM1 Buses=[633 634]
~ Phases=3   Windings=2  XHL=2  %NoLoadLoss=0.6 %imag=1.1
~ wdg=1 conn=Wye kv=4.16   kva=500   %r=.55
~ wdg=2 conn=Wye kv=0.480  kva=500   %r=.55

!New Transformer.Reg1 XfmrCode=RegLeg Bank=Reg Buses=[650.1 RG60.1]
!New Transformer.Reg2 XfmrCode=RegLeg Bank=Reg Buses=[650.2 RG60.2]
!New Transformer.Reg3 XfmrCode=RegLeg Bank=Reg Buses=[650.3 RG60.3]
!new regcontrol.Reg1  transformer=Reg1 winding=2  vreg=122  band=2  ptratio=20 ctprim=700  R=3   X=9
!new regcontrol.Reg2  transformer=Reg2 winding=2  vreg=122  band=2  ptratio=20 ctprim=700  R=3   X=9
!new regcontrol.Reg3  transformer=Reg3 winding=2  vreg=122  band=2  ptratio=20 ctprim=700  R=3   X=9
New Transformer.Reg1 Bank=Reg Buses=[650.1 RG60.1] taps=[1.0 1.0625]
~ phases=1 xhl=0.01 kvas=[1666 1666] kvs=[2.4 2.4] %LoadLoss=0.01
New Transformer.Reg2 Bank=Reg Buses=[650.2 RG60.2] taps=[1.0 1.0500]
~ phases=1 xhl=0.01 kvas=[1666 1666] kvs=[2.4 2.4] %LoadLoss=0.01
New Transformer.Reg3 Bank=Reg Buses=[650.3 RG60.3] taps=[1.0 1.06875]
~ phases=1 xhl=0.01 kvas=[1666 1666] kvs=[2.4 2.4] %LoadLoss=0.01

!New Load.671 Bus1=671.1.2.3       Phases=3 Conn=Delta Model=1 kV=4.16   kW=1155 kvar=660 vminpu=0.1 vmaxpu=10
New Load.671a Bus1=671.1  Phases=1 Conn=Wye  Model=1 kV=2.4  kW=383.3   kvar=206.5 vminpu=0.1 vmaxpu=10
New Load.671b Bus1=671.2  Phases=1 Conn=Wye  Model=1 kV=2.4  kW=391.2   kvar=238.5 vminpu=0.1 vmaxpu=10
New Load.671c Bus1=671.3  Phases=1 Conn=Wye  Model=1 kV=2.4  kW=380.5   kvar=214.9 vminpu=0.1 vmaxpu=10

New Load.634a Bus1=634.1   Phases=1 Conn=Wye  Model=1 kV=0.277  kW=160   kvar=110 vminpu=0.1 vmaxpu=10
New Load.634b Bus1=634.2   Phases=1 Conn=Wye  Model=1 kV=0.277  kW=120   kvar=90 vminpu=0.1 vmaxpu=10
New Load.634c Bus1=634.3   Phases=1 Conn=Wye  Model=1 kV=0.277  kW=120   kvar=90 vminpu=0.1 vmaxpu=10
New Load.645 Bus1=645.2    Phases=1 Conn=Wye  Model=1 kV=2.4      kW=170   kvar=125 vminpu=0.1 vmaxpu=10

!New Load.646 Bus1=646.2.3    Phases=1 Conn=Delta Model=2 kV=4.16    kW=230   kvar=132 vminpu=0.1 vmaxpu=10
New Load.646b Bus1=646.2  Phases=1 Conn=Wye  Model=1 kV=2.4  kW=159.6   kvar=0.4 vminpu=0.1 vmaxpu=10
New Load.646c Bus1=646.3  Phases=1 Conn=Wye  Model=1 kV=2.4  kW=80.3   kvar=137.3 vminpu=0.1 vmaxpu=10

!New Load.692 Bus1=692.3.1    Phases=1 Conn=Delta Model=5 kV=4.16    kW=170   kvar=151 vminpu=0.1 vmaxpu=10
New Load.692c Bus1=692.3  Phases=1 Conn=Wye  Model=1 kV=2.4  kW=126.0   kvar=27.3 vminpu=0.1 vmaxpu=10
New Load.692a Bus1=692.1  Phases=1 Conn=Wye  Model=1 kV=2.4  kW=41.7   kvar=121.6 vminpu=0.1 vmaxpu=10

New Load.675a Bus1=675.1  Phases=1 Conn=Wye  Model=1 kV=2.4  kW=485   kvar=190 vminpu=0.1 vmaxpu=10
New Load.675b Bus1=675.2  Phases=1 Conn=Wye  Model=1 kV=2.4  kW=68   kvar=60 vminpu=0.1 vmaxpu=10
New Load.675c Bus1=675.3  Phases=1 Conn=Wye  Model=1 kV=2.4  kW=290   kvar=212 vminpu=0.1 vmaxpu=10
New Load.611 Bus1=611.3    Phases=1 Conn=Wye  Model=5 kV=2.4  kW=170   kvar=80 vminpu=0.1 vmaxpu=10
New Load.652 Bus1=652.1    Phases=1 Conn=Wye  Model=2 kV=2.4  kW=128   kvar=86 vminpu=0.1 vmaxpu=10
New Load.670a Bus1=670.1   Phases=1 Conn=Wye  Model=1 kV=2.4  kW=17    kvar=10 vminpu=0.1 vmaxpu=10
New Load.670b Bus1=670.2   Phases=1 Conn=Wye  Model=1 kV=2.4  kW=66    kvar=38 vminpu=0.1 vmaxpu=10
New Load.670c Bus1=670.3   Phases=1 Conn=Wye  Model=1 kV=2.4  kW=117  kvar=68 vminpu=0.1 vmaxpu=10

!Bus 670 is the concentrated point load of the distributed load on line 632 to 671 located at 1/3 the distance from node 632


! Replace geometry with linecode obtained by the command 'show lineconstants'
! Or add matrices directly if no associated linecode
!New Line.650632    Phases=3 Bus1=RG60.1.2.3   Bus2=632.1.2.3  Geometry=601 Length=2000 units=ft
New Line.650632    Phases=3 Bus1=RG60.1.2.3   Bus2=632.1.2.3  linecode=601 Length=2000 units=ft
!New Line.632670    Phases=3 Bus1=632.1.2.3    Bus2=670.1.2.3  Geometry=601 Length=667  units=ft
New Line.632670    Phases=3 Bus1=632.1.2.3    Bus2=670.1.2.3  linecode=601 Length=667  units=ft
!New Line.670671    Phases=3 Bus1=670.1.2.3    Bus2=671.1.2.3  Geometry=601 Length=1333 units=ft
New Line.670671    Phases=3 Bus1=670.1.2.3    Bus2=671.1.2.3  linecode=601 Length=1333 units=ft
!New Line.671680    Phases=3 Bus1=671.1.2.3    Bus2=680.1.2.3  Geometry=601 Length=1000 units=ft
New Line.671680    Phases=3 Bus1=671.1.2.3    Bus2=680.1.2.3  linecode=601 Length=1000 units=ft
!New Line.632633    Phases=3 Bus1=632.1.2.3    Bus2=633.1.2.3  Geometry=602 Length=500  units=ft
New Line.632633    Phases=3 Bus1=632.1.2.3    Bus2=633.1.2.3  linecode=602 Length=500  units=ft
!New Line.632645    Phases=2 Bus1=632.3.2      Bus2=645.3.2    Geometry=603 Length=500  units=ft
New Line.632645    Phases=2 Bus1=632.3.2      Bus2=645.3.2    linecode=603 Length=500  units=ft
// New Line.645646    Phases=2 Bus1=645.3.2      Bus2=646.3.2    Geometry=603 Length=300  units=ft
New Line.645646    Phases=2 Bus1=645.3.2      Bus2=646.3.2    Length=0.0568  units=mi normamps=230
~ rmatrix = (1.3238 | 0.2066 1.3294 )
~ xmatrix = (1.3569 | 0.4591 1.3471 )
!New Line.692675    Phases=3 Bus1=692.1.2.3    Bus2=675.1.2.3  Geometry=606 Length=500  units=ft
New Line.692675    Phases=3 Bus1=692.1.2.3    Bus2=675.1.2.3  linecode=606 Length=500  units=ft
!New Line.671684    Phases=2 Bus1=671.1.3      Bus2=684.1.3    Geometry=604 Length=300  units=ft
New Line.671684    Phases=2 Bus1=671.1.3      Bus2=684.1.3    linecode=604 Length=300  units=ft
// New Line.684611    Phases=1 Bus1=684.3        Bus2=611.3      Geometry=605 Length=300  units=ft
!New Line.684611    Phases=1 Bus1=684.3 Bus2=611.3 Spacing=510 Wires=[ACSR_1/0 ACSR_1/0] Length=300  units=ft
New Line.684611    Phases=1 Bus1=684.3 Bus2=611.3 Length=300  units=ft
~ rmatrix = (0.0002481311)
~ xmatrix = (0.0002186535)
~ cmatrix = (0.002271932)
!New Line.684652    Phases=1 Bus1=684.1        Bus2=652.1      Geometry=607 Length=800  units=ft
New Line.684652    Phases=1 Bus1=684.1        Bus2=652.1      linecode=607 Length=800  units=ft
New Line.671692    Phases=3 Bus1=671   Bus2=692  Switch=y  r1=1e-4 r0=1e-4 x1=0.000 x0=0.000 c1=0.000 c0=0.000

!Replace capacitors and their controls with PQ loads, setpoints taken from solution
!New Capacitor.Cap1 Bus1=675 phases=3 kVAR=600 kV=4.16
!New CapControl.Cap1 capacitor=cap1 type=time on=8 off=19 element=capacitor.cap1
New Load.Cap1 Bus1=675 phases=3 kv=4.16 kw=0 kvar=0
!New Capacitor.Cap2 Bus1=611.3 phases=1 kVAR=100 kV=2.4
!New CapControl.Cap2 capacitor=cap2 type=voltage on=115 off=125 ptratio=20 ptphase=1 element=line.684611 terminal=2
New Load.Cap2 Bus1=611.3 phases=1 kv=2.4 kw=0 kvar=-96 vminpu=0.7 vmaxpu=1.3


Set Voltagebases=[115, 4.16, .48]
calcv
Solve
!BusCoords IEEE13Node_BusXY.csv

!Transformer.Reg1.Taps=[1.0 1.0625]
!Transformer.Reg2.Taps=[1.0 1.0500]
!Transformer.Reg3.Taps=[1.0 1.06875]
!Set Controlmode=OFF

!Solve
